CN15_EXP_CURRENTS.CSV
Element, I1_1, Ang1_1, I1_2, Ang1_2, I1_3, Ang1_3, I1_4, Ang1_4, Iresid1, AngResid1, I2_1, Ang2_1, I2_2, Ang2_2, I2_3, Ang2_3, I2_4, Ang2_4, Iresid2, AngResid2
Vsource.SOURCE,    1930.87,   139.47,    1930.87,    19.47,    1930.87,  -100.53,          0,     0.00, 0.000191364,    92.15,    1930.87,   -40.53,    1930.87,  -160.53,    1930.87,    79.47,          0,     0.00, 0.000191364,   -87.85
Line.L_CEI_MT_5070,    1394.84,   -41.63,    1394.84,  -161.63,    1394.84,    78.37,          0,     0.00, 0.000190734,   -87.90,    1394.84,   138.37,    1394.84,    18.37,    1394.84,  -101.63,          0,     0.00, 0.000190733,    92.10
Line.L_CEI_MT_15536,    1.05576,   138.33,    1.05576,    18.33,    1.05576,  -101.67,          0,     0.00, 4.79428E-009,   -29.05,    1.05576,   -41.67,    1.05576,  -161.67,    1.05576,    78.33,          0,     0.00, 7.00042E-009,   176.19
Line.L_CEI_MT_15882A,    1.05315,   -41.64,    1.05315,  -161.64,    1.05315,    78.36,          0,     0.00, 5.1434E-009,    95.19,    1.05315,   138.36,    1.05315,    18.36,    1.05315,  -101.64,          0,     0.00, 2.32831E-009,   -53.13
Line.L_CEI_MT_16214A,    63.2733,   138.35,    63.2733,    18.35,    63.2733,  -101.65,          0,     0.00, 1.08738E-006,   -68.39,    63.2733,   -41.65,    63.2733,  -161.65,    63.2733,    78.35,          0,     0.00, 1.0892E-006,   111.52
Line.L_CEI_MT_16214A99,    63.2733,   -41.65,    63.2733,  -161.65,    63.2733,    78.35,          0,     0.00, 7.41521E-007,  -163.02,    63.2733,   138.35,    63.2733,    18.35,    63.2733,  -101.65,          0,     0.00, 7.42993E-007,    16.98
Line.L_CEI_MT_16434A,    39.5444,   138.35,    39.5444,    18.35,    39.5444,  -101.65,          0,     0.00, 1.03194E-006,   -67.47,    39.5444,   -41.65,    39.5444,  -161.65,    39.5444,    78.35,          0,     0.00, 1.02908E-006,   112.48
Line.L_CEI_MT_171819,    283.964,   138.39,    283.964,    18.39,    283.964,  -101.61,          0,     0.00, 3.39998E-005,    85.42,    283.964,   -41.61,    283.964,  -161.61,    283.964,    78.39,          0,     0.00, 3.39992E-005,   -94.58
Line.L_CEI_MT_171820,    283.964,   138.39,    283.964,    18.39,    283.964,  -101.61,          0,     0.00, 3.39953E-005,    85.42,    283.964,   -41.61,    283.964,  -161.61,    283.964,    78.39,          0,     0.00, 3.39947E-005,   -94.58
Line.L_CEI_MT_171828,    1.58219,   138.34,    1.58219,    18.34,    1.58219,  -101.66,          0,     0.00, 6.0536E-009,   -90.00,    1.58219,   -41.66,    1.58219,  -161.66,    1.58219,    78.34,          0,     0.00, 5.20625E-009,   100.30
Line.L_CEI_MT_171838,    171.154,   -41.59,    171.154,  -161.59,    171.154,    78.41,          0,     0.00, 2.8342E-005,   -70.12,    171.154,   138.41,    171.154,    18.41,    171.154,  -101.59,          0,     0.00, 2.83452E-005,   109.88
Line.L_CEI_MT_171839,    167.996,   -41.59,    167.996,  -161.59,    167.996,    78.41,          0,     0.00, 2.83551E-005,   -70.13,    167.996,   138.41,    167.996,    18.41,    167.996,  -101.59,          0,     0.00, 2.83556E-005,   109.88
Line.L_CEI_MT_171841,          0,     0.00, 6.58545E-010,   -45.00, 1.31709E-009,    45.00,          0,     0.00, 1.47255E-009,    18.43, 6.58545E-010,    45.00, 2.0825E-009,   153.43, 2.63418E-009,  -135.00,          0,     0.00, 3.29272E-009,  -171.87
Line.L_CEI_MT_171843, 1.47255E-009,   161.57, 3.75428E-009,   172.87, 1.31709E-009,  -135.00,          0,     0.00, 6.0536E-009,   180.00, 1.97563E-009,    45.00, 1.47255E-009,  -161.57, 2.63418E-009,    45.00,          0,     0.00, 3.35793E-009,    56.31
Line.L_CEI_MT_171854, 2.50766E-009,  -111.80, 2.32831E-009,  -143.13, 3.83994E-009,  -104.04,          0,     0.00,  8.33E-009,  -116.57, 3.35793E-009,    33.69, 2.32831E-009,    36.87, 2.63418E-009,    45.00,          0,     0.00, 8.29086E-009,    38.16
Line.L_CEI_MT_171863,    238.588,   138.40,    238.588,    18.40,    238.588,  -101.60,          0,     0.00, 3.03083E-005,    92.82,    238.588,   -41.60,    238.588,  -161.60,    238.588,    78.40,          0,     0.00, 3.03082E-005,   -87.19
Line.L_CEI_MT_171864,    238.588,   -41.60,    238.588,  -161.60,    238.588,    78.40,          0,     0.00, 3.03114E-005,   -87.19,    238.588,   138.40,    238.588,    18.40,    238.588,  -101.60,          0,     0.00, 3.03142E-005,    92.81
Line.L_CEI_MT_171865,    238.588,   -41.60,    238.588,  -161.60,    238.588,    78.40,          0,     0.00, 3.03156E-005,   -87.19,    238.588,   138.40,    238.588,    18.40,    238.588,  -101.60,          0,     0.00, 3.03146E-005,    92.81
Line.L_CEI_MT_171866,    238.588,   138.40,    238.588,    18.40,    238.588,  -101.60,          0,     0.00, 3.0321E-005,    92.80,    238.588,   -41.60,    238.588,  -161.60,    238.588,    78.40,          0,     0.00, 3.03214E-005,   -87.20
Line.L_CEI_MT_171867,    432.241,   -41.60,    432.241,  -161.60,    432.241,    78.40,          0,     0.00, 5.98172E-005,   -77.90,    432.241,   138.40,    432.241,    18.40,    432.241,  -101.60,          0,     0.00, 5.98171E-005,   102.10
Line.L_CEI_MT_171870,    670.829,   -41.60,    670.829,  -161.60,    670.829,    78.40,          0,     0.00, 8.98808E-005,   -81.01,    670.829,   138.40,    670.829,    18.40,    670.829,  -101.60,          0,     0.00, 8.988E-005,    98.99
Line.L_CEI_MT_171871, 4.95005E-009,   131.19, 1.86265E-009,     0.00, 4.65661E-010,   180.00,          0,     0.00, 4.165E-009,   116.57, 5.30936E-009,   -52.13, 2.79397E-009,   180.00, 3.75428E-009,   -82.87,          0,     0.00, 7.97084E-009,   -83.29
Line.L_CEI_MT_171872, 1.86265E-009,    90.00, 2.63418E-009,    45.00, 3.83994E-009,   104.04,          0,     0.00, 7.50856E-009,    82.87, 3.75428E-009,   -97.13, 4.74883E-009,  -168.69, 5.58794E-009,   -90.00,          0,     0.00, 1.14538E-008,  -116.57
Line.L_CEI_MT_171881, 1.04125E-009,    63.43, 3.75428E-009,    60.26, 2.0825E-009,    63.43,          0,     0.00, 6.87541E-009,    61.70, 1.39698E-009,   -90.00, 3.63693E-009,  -140.19, 4.165E-009,  -116.57,          0,     0.00, 8.78608E-009,  -122.01
Line.L_CEI_MT_171882, 1.91997E-009,    14.04, 6.58545E-010,   -45.00, 4.65661E-010,   180.00,          0,     0.00, 1.86265E-009,     0.00, 2.0825E-009,   153.43, 1.67897E-009,   123.69, 1.91997E-009,   104.04,          0,     0.00, 5.30936E-009,   127.87
Line.L_CEI_MT_171885,    670.829,   -41.60,    670.829,  -161.60,    670.829,    78.40,          0,     0.00, 8.98921E-005,   -81.01,    670.829,   138.40,    670.829,    18.40,    670.829,  -101.60,          0,     0.00, 8.98925E-005,    98.99
Line.L_CEI_MT_171886, 4.60981E-009,   135.00, 3.72529E-009,     0.00, 3.83994E-009,   104.04,          0,     0.00, 7.00042E-009,    93.81, 4.29318E-009,   -49.40, 4.21674E-009,   173.66, 5.66501E-009,   -80.54,          0,     0.00, 8.39483E-009,   -93.18
Line.L_CEI_MT_171887, 2.32831E-009,    53.13, 3.39007E-009,    15.95, 1.91997E-009,    75.96,          0,     0.00, 6.92255E-009,    42.27, 1.47255E-009,  -108.43, 2.79397E-009,   180.00, 2.32831E-009,  -126.87,          0,     0.00, 5.68412E-009,  -145.01
Line.L_CEI_MT_171888,          0,     0.00, 9.31323E-010,     0.00, 3.75428E-009,    82.87,          0,     0.00, 3.97861E-009,    69.44, 6.58545E-010,  -135.00, 1.86265E-009,   180.00, 2.32831E-009,  -126.87,          0,     0.00, 4.39304E-009,  -147.99
Line.L_CEI_MT_171889,    670.829,   -41.60,    670.829,  -161.60,    670.829,    78.40,          0,     0.00, 8.99006E-005,   -81.01,    670.829,   138.40,    670.829,    18.40,    670.829,  -101.60,          0,     0.00, 8.98995E-005,    98.99
Line.L_CEI_MT_171893,    670.829,   -41.60,    670.829,  -161.60,    670.829,    78.40,          0,     0.00, 8.98995E-005,   -81.02,    670.829,   138.40,    670.829,    18.40,    670.829,  -101.60,          0,     0.00, 8.99003E-005,    98.98
Line.L_CEI_MT_171895, 1.86265E-009,     0.00, 1.04125E-009,   -26.57, 1.91997E-009,    75.96,          0,     0.00, 3.54637E-009,    23.20, 1.97563E-009,   135.00, 4.65661E-010,     0.00, 1.86265E-009,    90.00,          0,     0.00, 3.39007E-009,   105.95
Line.L_CEI_MT_171897,     665.56,   138.40,     665.56,    18.40,     665.56,  -101.60,          0,     0.00, 8.53175E-005,    99.48,     665.56,   -41.60,     665.56,  -161.60,     665.56,    78.40,          0,     0.00, 8.53179E-005,   -80.52
Line.L_CEI_MT_171898, 5.20625E-009,  -100.30, 5.30936E-009,  -164.74, 3.83994E-009,   -75.96,          0,     0.00, 1.14538E-008,  -116.57, 3.75428E-009,    82.87, 2.0825E-009,    26.57, 3.75428E-009,    82.87,          0,     0.00, 8.8353E-009,    71.57
Line.L_CEI_MT_171900, 1.91997E-009,   104.04, 1.47255E-009,    18.43, 3.83994E-009,    75.96,          0,     0.00, 6.33368E-009,    72.90, 1.47255E-009,   -71.57, 4.29318E-009,  -167.47, 7.46512E-009,   -86.42,          0,     0.00, 1.03079E-008,  -108.43
Line.L_CEI_MT_171901, 3.35793E-009,   123.69, 2.71525E-009,    30.96, 3.83994E-009,    75.96,          0,     0.00, 8.03856E-009,    79.99, 2.98169E-009,   -51.34, 2.71525E-009,  -120.96, 3.75428E-009,   -97.13,          0,     0.00, 8.3819E-009,   -90.00
Line.L_CEI_MT_171903, 1.04125E-009,   -63.43, 1.31709E-009,   -45.00, 2.32831E-009,    53.13,          0,     0.00, 2.79397E-009,     0.00, 1.47255E-009,   108.43, 2.37442E-009,  -168.69, 2.32831E-009,  -126.87,          0,     0.00, 4.29318E-009,  -167.47
Line.L_CEI_MT_171909,    228.583,   138.40,    228.583,    18.40,    228.583,  -101.60,          0,     0.00, 3.0478E-005,    99.90,    228.583,   -41.60,    228.583,  -161.60,    228.583,    78.40,          0,     0.00, 3.04792E-005,   -80.10
Line.L_CEI_MT_171910,    228.583,   -41.60,    228.583,  -161.60,    228.583,    78.40,          0,     0.00, 3.0475E-005,   -80.10,    228.583,   138.40,    228.583,    18.40,    228.583,  -101.60,          0,     0.00, 3.04746E-005,    99.90
Line.L_CEI_MT_171911, 2.0825E-009,  -116.57, 3.29272E-009,  -171.87, 9.31323E-010,   180.00,          0,     0.00, 5.62661E-009,  -155.56, 9.31323E-010,     0.00, 3.25963E-009,     0.00, 2.32831E-009,    53.13,          0,     0.00, 5.8902E-009,    18.43
Line.L_CEI_MT_171919, 1.91997E-009,  -104.04, 1.97563E-009,   -45.00, 1.86265E-009,    90.00,          0,     0.00, 1.67897E-009,   -56.31, 4.65661E-010,    90.00, 1.86265E-009,    90.00, 1.91997E-009,  -104.04,          0,     0.00, 6.58545E-010,   135.00
Line.L_CEI_MT_171921, 1.04125E-009,   116.57, 2.0825E-009,    26.57, 2.32831E-009,   -53.13,          0,     0.00, 2.79397E-009,     0.00, 2.0825E-009,    26.57, 4.65661E-010,   180.00, 1.31709E-009,  -135.00,          0,     0.00, 4.65661E-010,     0.00
Line.L_CEI_MT_171953, 6.78013E-009,   105.95, 4.29318E-009,    77.47, 8.58637E-009,   139.40,          0,     0.00, 1.79204E-008,   114.57, 6.48591E-009,   -68.96, 2.79397E-009,   -90.00,  8.33E-009,   -26.57,          0,     0.00, 1.59281E-008,   -52.13
Line.L_CEI_MT_171954, 1.39698E-009,   180.00, 2.32831E-009,   126.87, 1.04125E-009,    63.43,          0,     0.00, 3.63693E-009,   129.81, 2.98169E-009,   -51.34, 1.97563E-009,   -45.00, 3.75428E-009,   -82.87,          0,     0.00,  8.33E-009,   -63.43
Line.L_CEI_MT_171955, 5.4305E-009,   120.96, 1.31709E-009,    45.00, 3.83994E-009,   104.04,          0,     0.00, 9.72329E-009,   106.70, 5.62661E-009,   -65.56, 1.04125E-009,    26.57, 3.35793E-009,   -56.31,          0,     0.00, 9.04151E-009,   -55.49
Line.L_CEI_MT_171958, 2.0825E-009,   116.57, 4.74883E-009,   -11.31, 4.74883E-009,    78.69,          0,     0.00, 7.27386E-009,    50.19, 2.32831E-009,   -90.00, 4.21674E-009,   173.66, 5.58794E-009,   -90.00,          0,     0.00, 8.5484E-009,  -119.36
Line.L_CEI_MT_171959, 1.67897E-009,    33.69, 3.12375E-009,    26.57, 1.86265E-009,     0.00,          0,     0.00, 6.48591E-009,    21.04, 1.67897E-009,  -146.31, 1.47255E-009,  -108.43, 2.9451E-009,  -108.43,          0,     0.00, 5.83472E-009,  -118.61
Line.L_CEI_MT_171960, 6.58545E-010,    45.00, 3.25963E-009,     0.00, 9.31323E-010,   180.00,          0,     0.00, 2.83251E-009,     9.46, 1.39698E-009,   180.00, 1.86265E-009,     0.00, 1.31709E-009,   -45.00,          0,     0.00, 1.67897E-009,   -33.69
Line.L_CEI_MT_171961, 1.67897E-009,   123.69,          0,     0.00,          0,     0.00,          0,     0.00, 1.67897E-009,   123.69, 9.31323E-010,     0.00, 1.47255E-009,  -161.57, 1.04125E-009,  -116.57,          0,     0.00, 1.67897E-009,  -123.69
Line.L_CEI_MT_171965, 1.43583E-006,   144.08, 3.1099E-006,   166.65, 3.44506E-006,    81.35,          0,     0.00, 6.17538E-006,   126.47, 1.43713E-006,   -35.93, 3.10649E-006,   -13.38, 3.4442E-006,   -98.66,          0,     0.00, 6.17419E-006,   -53.56
Line.L_CEI_MT_171966, 1.4359E-006,   -35.99, 3.1071E-006,   -13.32, 3.44222E-006,   -98.65,          0,     0.00, 6.17072E-006,   -53.53, 1.4359E-006,   144.01, 3.10915E-006,   166.71, 3.4413E-006,    81.35,          0,     0.00, 6.17061E-006,   126.49
Line.L_CEI_MT_171967, 1.43446E-006,   -36.10, 3.10462E-006,   -13.31, 3.44009E-006,   -98.73,          0,     0.00, 6.16332E-006,   -53.59, 1.43446E-006,   143.90, 3.10451E-006,   166.70, 3.44102E-006,    81.27,          0,     0.00, 6.16369E-006,   126.41
Line.L_CEI_MT_171969, 1.04125E-009,   -63.43, 6.58545E-010,   -45.00, 1.67897E-009,  -146.31,          0,     0.00, 2.37442E-009,  -101.31, 2.9451E-009,   108.43, 1.67897E-009,    56.31, 2.9451E-009,    71.57,          0,     0.00, 7.04673E-009,    82.41
Line.L_CEI_MT_171976, 4.00577E-009,   -54.46, 1.67897E-009,  -123.69, 5.75991E-009,   -75.96,          0,     0.00, 1.06187E-008,   -74.74, 3.35793E-009,   123.69, 9.31323E-010,    90.00, 6.58545E-009,    98.13,          0,     0.00, 1.06187E-008,   105.26
Line.L_CEI_MT_171977, 1.67897E-009,   123.69, 1.04125E-009,    26.57, 2.79397E-009,    90.00,          0,     0.00, 4.65661E-009,    90.00, 3.75428E-009,   -82.87, 1.86265E-009,   180.00, 1.91997E-009,  -104.04,          0,     0.00, 5.8902E-009,  -108.43
Line.L_CEI_MT_171978, 1.67897E-009,   -56.31, 9.31323E-010,   -90.00, 3.35793E-009,  -123.69,          0,     0.00, 5.20625E-009,  -100.30, 1.91997E-009,   104.04, 2.63418E-009,    45.00, 2.0825E-009,    63.43,          0,     0.00, 6.0536E-009,    67.38
Line.L_CEI_MT_171981,    11.5117,   138.42,    11.5117,    18.42,    11.5117,  -101.58,          0,     0.00, 8.04364E-007,   160.27,    11.5117,   -41.58,    11.5117,  -161.58,    11.5117,    78.42,          0,     0.00, 8.03173E-007,   -19.69
Line.L_CEI_MT_171986, 2.32831E-009,    36.87, 2.98169E-009,    38.66, 2.9451E-009,   108.43,          0,     0.00, 6.87541E-009,    61.70, 2.32831E-009,  -143.13, 1.04125E-009,   153.43, 1.86265E-009,   -90.00,          0,     0.00, 3.95127E-009,  -135.00
Line.L_CEI_MT_171987,    11.5117,   138.42,    11.5117,    18.42,    11.5117,  -101.58,          0,     0.00, 8.07659E-007,   160.11,    11.5117,   -41.58,    11.5117,  -161.58,    11.5117,    78.42,          0,     0.00, 8.07185E-007,   -19.79
Line.L_CEI_MT_171988,    11.5117,   -41.58,    11.5117,  -161.58,    11.5117,    78.42,          0,     0.00, 8.09598E-007,   -19.49,    11.5117,   138.42,    11.5117,    18.42,    11.5117,  -101.58,          0,     0.00, 8.0797E-007,   160.54
Line.L_CEI_MT_171992,    11.5117,   138.42,    11.5117,    18.42,    11.5117,  -101.58,          0,     0.00, 8.02488E-007,   160.16,    11.5117,   -41.58,    11.5117,  -161.58,    11.5117,    78.42,          0,     0.00, 8.0396E-007,   -19.84
Line.L_CEI_MT_171994, 2.37442E-009,    78.69, 1.47255E-009,    18.43, 1.91997E-009,   104.04,          0,     0.00, 4.86165E-009,    73.30, 1.47255E-009,   -71.57, 1.39698E-009,   180.00, 9.31323E-010,   -90.00,          0,     0.00, 2.50766E-009,  -111.80
Line.L_CEI_MT_171995, 6.58545E-010,   -45.00, 6.58545E-010,   135.00,          0,     0.00,          0,     0.00,          0,     0.00, 6.58545E-010,   135.00, 2.37442E-009,  -168.69, 9.31323E-010,   -90.00,          0,     0.00, 2.9451E-009,  -161.57
Line.L_CEI_MT_172004, 1.04125E-009,   116.57, 2.98169E-009,    38.66, 2.0825E-009,    63.43,          0,     0.00, 5.4305E-009,    59.04, 4.65661E-010,     0.00, 3.63693E-009,  -129.81, 1.31709E-009,  -135.00,          0,     0.00, 4.65661E-009,  -126.87
Line.L_CEI_MT_172005, 4.65661E-010,     0.00, 6.58545E-010,  -135.00, 2.0825E-009,  -116.57,          0,     0.00, 2.50766E-009,  -111.80, 4.65661E-010,   180.00, 1.39698E-009,     0.00, 2.9451E-009,    71.57,          0,     0.00, 3.35793E-009,    56.31
Line.L_CEI_MT_13478A,    4.21256,   -41.64,    4.21256,  -161.64,    4.21256,    78.36,          0,     0.00, 1.92612E-006,   162.32,    4.21256,   138.36,    4.21256,    18.36,    4.21256,  -101.64,          0,     0.00, 1.92644E-006,   -17.62
Line.L_CEI_MT_12338A,    31.6354,   138.35,    31.6354,    18.35,    31.6354,  -101.65,          0,     0.00, 1.01622E-006,   -67.42,    31.6354,   -41.65,    31.6354,  -161.65,    31.6354,    78.35,          0,     0.00, 1.01657E-006,   112.63
Line.L_CEI_MT_14799,     2.1122,   -41.67,     2.1122,  -161.67,     2.1122,    78.33,          0,     0.00, 4.29318E-009,   139.40,     2.1122,   138.33,     2.1122,    18.33,     2.1122,  -101.67,          0,     0.00, 4.29318E-009,   -40.60
Line.L_CEI_MT_14800,    6.86463,   -41.67,    6.86463,  -161.67,    6.86463,    78.33,          0,     0.00, 1.68284E-008,    75.58,    6.86463,   138.33,    6.86463,    18.33,    6.86463,  -101.67,          0,     0.00, 1.49084E-008,  -104.47
Line.L_CEI_MT_14801,    6.86463,   138.33,    6.86463,    18.33,    6.86463,  -101.67,          0,     0.00, 2.10374E-008,   -84.92,    6.86463,   -41.67,    6.86463,  -161.67,    6.86463,    78.33,          0,     0.00, 1.92955E-008,    98.33
Line.L_CEI_MT_14802,    4.75243,   -41.67,    4.75243,  -161.67,    4.75243,    78.33,          0,     0.00, 9.78997E-009,    92.73,    4.75243,   138.33,    4.75243,    18.33,    4.75243,  -101.67,          0,     0.00, 1.09604E-008,  -102.26
Line.L_CEI_MT_14803,    4.75243,   -41.67,    4.75243,  -161.67,    4.75243,    78.33,          0,     0.00, 9.27824E-009,    72.47,    4.75243,   138.33,    4.75243,    18.33,    4.75243,  -101.67,          0,     0.00, 8.39483E-009,  -123.69
Line.L_CEI_MT_14804,    4.75243,   -41.67,    4.75243,  -161.67,    4.75243,    78.33,          0,     0.00, 5.1434E-009,    95.19,    4.75243,   138.33,    4.75243,    18.33,    4.75243,  -101.67,          0,     0.00, 6.98492E-009,   -90.00
Line.L_CEI_MT_14805,    4.75243,   -41.67,    4.75243,  -161.67,    4.75243,    78.33,          0,     0.00, 1.17804E-008,   108.43,    4.75243,   138.33,    4.75243,    18.33,    4.75243,  -101.67,          0,     0.00, 1.36955E-008,   -72.18
Line.L_CEI_MT_14806,    1.05614,   -41.67,    1.05614,  -161.67,    1.05614,    78.33,          0,     0.00, 5.96337E-009,   128.66,    1.05614,   138.33,    1.05614,    18.33,    1.05614,  -101.67,          0,     0.00, 3.35793E-009,   -56.31
Line.L_CEI_MT_14807,    1.05614,   138.33,    1.05614,    18.33,    1.05614,  -101.67,          0,     0.00, 8.39483E-009,   -56.31,    1.05614,   -41.67,    1.05614,  -161.67,    1.05614,    78.33,          0,     0.00, 9.59985E-009,   112.83
Line.L_CEI_MT_14808,    1.05614,   -41.67,    1.05614,  -161.67,    1.05614,    78.33,          0,     0.00, 5.66501E-009,  -170.54,    1.05614,   138.33,    1.05614,    18.33,    1.05614,  -101.67,          0,     0.00, 9.27824E-009,    17.53
Line.L_CEI_MT_14809,    43.8294,   -41.67,    43.8294,  -161.67,    43.8294,    78.33,          0,     0.00, 7.49876E-006,  -163.38,    43.8294,   138.33,    43.8294,    18.33,    43.8294,  -101.67,          0,     0.00, 7.49756E-006,    16.62
Line.L_CEI_MT_14810,    1.58455,   138.33,    1.58455,    18.33,    1.58455,  -101.67,          0,     0.00, 5.45043E-009,  -109.98,    1.58455,   -41.67,    1.58455,  -161.67,    1.58455,    78.33,          0,     0.00, 2.98169E-009,    38.66
Line.L_CEI_MT_14811,     4.7621,   -41.69,     4.7621,  -161.69,     4.7621,    78.31,          0,     0.00, 3.59495E-008,    53.43,     4.7621,   138.31,     4.7621,    18.31,     4.7621,  -101.69,          0,     0.00, 3.67017E-008,  -125.71
Line.L_CEI_MT_14812,     4.7621,   -41.69,     4.7621,  -161.69,     4.7621,    78.31,          0,     0.00, 3.11297E-008,    55.36,     4.7621,   138.31,     4.7621,    18.31,     4.7621,  -101.69,          0,     0.00, 3.11471E-008,  -121.55
Line.L_CEI_MT_14813,     4.7621,   -41.69,     4.7621,  -161.69,     4.7621,    78.31,          0,     0.00, 3.1293E-008,    53.47,     4.7621,   138.31,     4.7621,    18.31,     4.7621,  -101.69,          0,     0.00, 3.02214E-008,  -123.69
Line.L_CEI_MT_14814,     4.7621,   -41.69,     4.7621,  -161.69,     4.7621,    78.31,          0,     0.00, 3.56406E-008,    61.09,     4.7621,   138.31,     4.7621,    18.31,     4.7621,  -101.69,          0,     0.00, 3.59375E-008,  -121.22
Line.L_CEI_MT_14815,     4.7621,   -41.69,     4.7621,  -161.69,     4.7621,    78.31,          0,     0.00, 2.93219E-008,    57.32,     4.7621,   138.31,     4.7621,    18.31,     4.7621,  -101.69,          0,     0.00, 3.23459E-008,  -120.26
Line.L_CEI_MT_14816,     4.7621,   -41.69,     4.7621,  -161.69,     4.7621,    78.31,          0,     0.00, 3.32809E-008,    72.07,     4.7621,   138.31,     4.7621,    18.31,     4.7621,  -101.69,          0,     0.00, 2.77606E-008,  -112.69
Line.L_CEI_MT_14817,     4.7621,   -41.69,     4.7621,  -161.69,     4.7621,    78.31,          0,     0.00, 2.68715E-008,    62.10,     4.7621,   138.31,     4.7621,    18.31,     4.7621,  -101.69,          0,     0.00, 2.52017E-008,  -117.51
Line.L_CEI_MT_14818,     4.7621,   -41.69,     4.7621,  -161.69,     4.7621,    78.31,          0,     0.00, 2.84206E-008,    55.01,     4.7621,   138.31,     4.7621,    18.31,     4.7621,  -101.69,          0,     0.00, 2.93994E-008,  -119.41
Line.L_CEI_MT_14819,     4.7621,   -41.69,     4.7621,  -161.69,     4.7621,    78.31,          0,     0.00, 1.92955E-008,    70.25,     4.7621,   138.31,     4.7621,    18.31,     4.7621,  -101.69,          0,     0.00, 1.93179E-008,  -105.38
Line.L_CEI_MT_14820,     4.7621,   -41.69,     4.7621,  -161.69,     4.7621,    78.31,          0,     0.00, 1.4458E-008,    75.07,     4.7621,   138.31,     4.7621,    18.31,     4.7621,  -101.69,          0,     0.00, 1.73985E-008,  -105.52
Line.L_CEI_MT_14821,     4.7621,   -41.69,     4.7621,  -161.69,     4.7621,    78.31,          0,     0.00, 1.21072E-008,    67.38,     4.7621,   138.31,     4.7621,    18.31,     4.7621,  -101.69,          0,     0.00, 1.13396E-008,  -109.18
Line.L_CEI_MT_14822,     4.7621,   -41.69,     4.7621,  -161.69,     4.7621,    78.31,          0,     0.00, 1.33345E-008,    77.91,     4.7621,   138.31,     4.7621,    18.31,     4.7621,  -101.69,          0,     0.00, 1.19721E-008,  -103.50
Line.L_CEI_MT_14823,     4.7621,   -41.69,     4.7621,  -161.69,     4.7621,    78.31,          0,     0.00, 1.31214E-008,   117.47,     4.7621,   138.31,     4.7621,    18.31,     4.7621,  -101.69,          0,     0.00, 2.50766E-009,   -68.20
Line.L_CEI_MT_14824,     4.7621,   -41.69,     4.7621,  -161.69,     4.7621,    78.31,          0,     0.00, 1.12725E-008,   128.29,     4.7621,   138.31,     4.7621,    18.31,     4.7621,  -101.69,          0,     0.00, 1.05573E-008,   -48.58
Line.L_CEI_MT_14825,    432.241,   -41.60,    432.241,  -161.60,    432.241,    78.40,          0,     0.00, 5.98215E-005,   -77.89,    432.241,   138.40,    432.241,    18.40,    432.241,  -101.60,          0,     0.00, 5.98204E-005,   102.10
Line.L_CEI_MT_14826,    432.241,   -41.60,    432.241,  -161.60,    432.241,    78.40,          0,     0.00, 5.98154E-005,   -77.90,    432.241,   138.40,    432.241,    18.40,    432.241,  -101.60,          0,     0.00, 5.98134E-005,   102.10
Line.L_CEI_MT_14827,     2.1076,   -41.65,     2.1076,  -161.65,     2.1076,    78.35,          0,     0.00, 5.9269E-009,   135.00,     2.1076,   138.35,     2.1076,    18.35,     2.1076,  -101.65,          0,     0.00, 4.165E-009,   -26.57
Line.L_CEI_MT_14828,     2.1076,   138.35,     2.1076,    18.35,     2.1076,  -101.65,          0,     0.00, 7.52299E-009,   -68.20,     2.1076,   -41.65,     2.1076,  -161.65,     2.1076,    78.35,          0,     0.00, 8.49752E-009,    99.46
Line.L_CEI_MT_14829,    219.897,   -41.59,    219.897,  -161.59,    219.897,    78.41,          0,     0.00, 2.86062E-005,   -79.22,    219.897,   138.41,    219.897,    18.41,    219.897,  -101.59,          0,     0.00, 2.86091E-005,   100.77
Line.L_CEI_MT_14830,    1.58321,   -41.66,    1.58321,  -161.66,    1.58321,    78.34,          0,     0.00, 2.83251E-009,    80.54,    1.58321,   138.34,    1.58321,    18.34,    1.58321,  -101.66,          0,     0.00, 3.12375E-009,  -116.57
Line.L_CEI_MT_14831,    270.504,   138.40,    270.504,    18.40,    270.504,  -101.60,          0,     0.00, 3.40349E-005,    85.46,    270.504,   -41.60,    270.504,  -161.60,    270.504,    78.40,          0,     0.00, 3.40383E-005,   -94.54
Line.L_CEI_MT_14832,    272.087,   138.40,    272.087,    18.40,    272.087,  -101.60,          0,     0.00, 3.4028E-005,    85.44,    272.087,   -41.60,    272.087,  -161.60,    272.087,    78.40,          0,     0.00, 3.40302E-005,   -94.56
Line.L_CEI_MT_14833,    270.504,   138.40,    270.504,    18.40,    270.504,  -101.60,          0,     0.00, 3.40361E-005,    85.46,    270.504,   -41.60,    270.504,  -161.60,    270.504,    78.40,          0,     0.00, 3.40402E-005,   -94.54
Line.L_CEI_MT_14834,    270.504,   138.40,    270.504,    18.40,    270.504,  -101.60,          0,     0.00, 3.40374E-005,    85.46,    270.504,   -41.60,    270.504,  -161.60,    270.504,    78.40,          0,     0.00, 3.40398E-005,   -94.54
Line.L_CEI_MT_14835,    270.504,   138.40,    270.504,    18.40,    270.504,  -101.60,          0,     0.00, 3.40382E-005,    85.46,    270.504,   -41.60,    270.504,  -161.60,    270.504,    78.40,          0,     0.00, 3.40396E-005,   -94.54
Line.L_CEI_MT_14836,    270.504,   138.40,    270.504,    18.40,    270.504,  -101.60,          0,     0.00, 3.40471E-005,    85.45,    270.504,   -41.60,    270.504,  -161.60,    270.504,    78.40,          0,     0.00, 3.40443E-005,   -94.55
Line.L_CEI_MT_14837,     262.59,   138.40,     262.59,    18.40,     262.59,  -101.60,          0,     0.00, 3.4841E-005,    87.66,     262.59,   -41.60,     262.59,  -161.60,     262.59,    78.40,          0,     0.00, 3.48405E-005,   -92.34
Line.L_CEI_MT_14838,    7.38593,   138.34,    7.38593,    18.34,    7.38593,  -101.66,          0,     0.00, 2.37804E-006,    94.79,    7.38593,   -41.66,    7.38593,  -161.66,    7.38593,    78.34,          0,     0.00, 2.38032E-006,   -85.23
Line.L_CEI_MT_14839,    7.38593,   138.34,    7.38593,    18.34,    7.38593,  -101.66,          0,     0.00, 2.38535E-006,    94.74,    7.38593,   -41.66,    7.38593,  -161.66,    7.38593,    78.34,          0,     0.00, 2.38678E-006,   -85.25
Line.L_CEI_MT_14840,    7.38593,   138.34,    7.38593,    18.34,    7.38593,  -101.66,          0,     0.00, 1.22793E-006,    75.42,    7.38593,   -41.66,    7.38593,  -161.66,    7.38593,    78.34,          0,     0.00, 1.22488E-006,  -104.55
Line.L_CEI_MT_14841,    7.38593,   138.34,    7.38593,    18.34,    7.38593,  -101.66,          0,     0.00, 1.23185E-006,    75.66,    7.38593,   -41.66,    7.38593,  -161.66,    7.38593,    78.34,          0,     0.00, 1.2324E-006,  -104.26
Line.L_CEI_MT_14842,    7.38593,   138.34,    7.38593,    18.34,    7.38593,  -101.66,          0,     0.00, 1.24144E-006,    75.16,    7.38593,   -41.66,    7.38593,  -161.66,    7.38593,    78.34,          0,     0.00, 1.24471E-006,  -104.83
Line.L_CEI_MT_14843,    7.38593,   138.34,    7.38593,    18.34,    7.38593,  -101.66,          0,     0.00, 1.23936E-006,    75.35,    7.38593,   -41.66,    7.38593,  -161.66,    7.38593,    78.34,          0,     0.00, 1.24094E-006,  -104.67
Line.L_CEI_MT_14844,     4.7481,   -41.66,     4.7481,  -161.66,    4.74809,    78.34,          0,     0.00, 1.25658E-006,  -104.29,     4.7481,   138.34,     4.7481,    18.34,    4.74809,  -101.66,          0,     0.00, 1.25714E-006,    75.78
Line.L_CEI_MT_14845,     4.7481,   138.34,     4.7481,    18.34,    4.74809,  -101.66,          0,     0.00, 1.26335E-006,    75.79,     4.7481,   -41.66,     4.7481,  -161.66,    4.74809,    78.34,          0,     0.00, 1.26188E-006,  -104.21
Line.L_CEI_MT_14846,     4.7481,   -41.66,     4.7481,  -161.66,     4.7481,    78.34,          0,     0.00, 1.11078E-008,   123.02,     4.7481,   138.34,     4.7481,    18.34,     4.7481,  -101.66,          0,     0.00, 1.25383E-008,   -58.67
Line.L_CEI_MT_14847,    7.91397,   138.34,    7.91397,    18.34,    7.91397,  -101.66,          0,     0.00, 2.04732E-008,   -72.80,    7.91397,   -41.66,    7.91397,  -161.66,    7.91397,    78.34,          0,     0.00, 1.8702E-008,   108.89
Line.L_CEI_MT_14848,    2.63783,   138.34,    2.63783,    18.34,    2.63783,  -101.66,          0,     0.00, 1.11856E-008,   -87.61,    2.63783,   -41.66,    2.63783,  -161.66,    2.63783,    78.34,          0,     0.00, 8.89645E-009,    96.01
Line.L_CEI_MT_14849,    2.63783,   138.34,    2.63783,    18.34,    2.63783,  -101.66,          0,     0.00, 1.07506E-008,   -72.35,    2.63783,   -41.66,    2.63783,  -161.66,    2.63783,    78.34,          0,     0.00, 1.10686E-008,   112.25
Line.L_CEI_MT_14850,    2.63783,   138.34,    2.63783,    18.34,    2.63783,  -101.66,          0,     0.00, 1.2143E-008,   -32.47,    2.63783,   -41.66,    2.63783,  -161.66,    2.63783,    78.34,          0,     0.00, 1.18538E-008,   135.00
Line.L_CEI_MT_14851,    2.63783,   138.34,    2.63783,    18.34,    2.63783,  -101.66,          0,     0.00, 5.20625E-009,   -63.43,    2.63783,   -41.66,    2.63783,  -161.66,    2.63783,    78.34,          0,     0.00, 5.75991E-009,   104.04
Line.L_CEI_MT_14852, 4.13843E-007,   132.90, 1.30395E-006,   -10.08, 8.34289E-007,  -129.72,          0,     0.00, 7.35559E-007,   -50.39, 4.13185E-007,   -47.10, 1.29995E-006,   169.97, 8.32142E-007,    50.15,          0,     0.00, 7.30252E-007,   129.62
Line.L_CEI_MT_14853, 4.10603E-007,   132.70, 1.30594E-006,   -10.10, 8.33224E-007,  -129.53,          0,     0.00, 7.43128E-007,   -50.08, 4.09261E-007,   -47.21, 1.3074E-006,   169.89, 8.31195E-007,    50.43,          0,     0.00, 7.44924E-007,   130.08
Line.L_CEI_MT_14854, 5.78294E-007,   -54.34, 1.99576E-006,   155.37, 1.93187E-006,    47.61,          0,     0.00, 1.79711E-006,    95.58, 5.78944E-007,   125.67, 1.99244E-006,   -24.61, 1.9335E-006,  -132.40,          0,     0.00, 1.79527E-006,   -84.57
Line.L_CEI_MT_14855,    2.11852,   138.30,    2.11852,    18.30,    2.11852,  -101.70,          0,     0.00, 7.70807E-009,    25.02,    2.11852,   -41.70,    2.11852,  -161.70,    2.11852,    78.30,          0,     0.00, 9.42892E-009,  -147.09
Line.L_CEI_MT_14856,    2.11852,   -41.70,    2.11852,  -161.70,    2.11852,    78.30,          0,     0.00, 5.45043E-009,  -160.02,    2.11852,   138.30,    2.11852,    18.30,    2.11852,  -101.70,          0,     0.00, 8.25154E-009,    16.39
Line.L_CEI_MT_14857,    2.11852,   -41.70,    2.11852,  -161.70,    2.11852,    78.30,          0,     0.00, 7.45058E-009,    90.00,    2.11852,   138.30,    2.11852,    18.30,    2.11852,  -101.70,          0,     0.00, 5.01533E-009,   -68.20
Line.L_CEI_MT_14858,    2.11852,   -41.70,    2.11852,  -161.70,    2.11852,    78.30,          0,     0.00, 4.86165E-009,  -163.30,    2.11852,   138.30,    2.11852,    18.30,    2.11852,  -101.70,          0,     0.00, 5.0369E-009,    33.69
Line.L_CEI_MT_14859,    2.11852,   -41.70,    2.11852,  -161.70,    2.11852,    78.30,          0,     0.00, 6.2475E-009,   153.43,    2.11852,   138.30,    2.11852,    18.30,    2.11852,  -101.70,          0,     0.00, 6.51926E-009,     0.00
Line.L_CEI_MT_14860,    7.95731,   -41.72,    7.95731,  -161.72,    7.95731,    78.28,          0,     0.00, 2.31195E-008,   124.33,    7.95731,   138.28,    7.95731,    18.28,    7.95731,  -101.72,          0,     0.00, 2.34917E-008,   -50.63
Line.L_CEI_MT_14861,    2.12251,   -41.72,    2.12251,  -161.72,    2.12251,    78.28,          0,     0.00, 3.39007E-009,   164.05,    2.12251,   138.28,    2.12251,    18.28,    2.12251,  -101.72,          0,     0.00, 4.95005E-009,    41.19
Line.L_CEI_MT_14862,    2.12251,   138.28,    2.12251,    18.28,    2.12251,  -101.72,          0,     0.00, 5.62661E-009,   -24.44,    2.12251,   -41.72,    2.12251,  -161.72,    2.12251,    78.28,          0,     0.00, 4.79428E-009,   150.95
Line.L_CEI_MT_14863,    2.12251,   138.28,    2.12251,    18.28,    2.12251,  -101.72,          0,     0.00, 1.02234E-008,   -30.07,    2.12251,   -41.72,    2.12251,  -161.72,    2.12251,    78.28,          0,     0.00, 8.39483E-009,   160.56
Line.L_CEI_MT_14864,    2.12251,   -41.72,    2.12251,  -161.72,    2.12251,    78.28,          0,     0.00, 3.63693E-009,   129.81,    2.12251,   138.28,    2.12251,    18.28,    2.12251,  -101.72,          0,     0.00, 5.8902E-009,   -71.57
Line.L_CEI_MT_14865,    79.0941,   138.34,    79.0941,    18.34,    79.0941,  -101.66,          0,     0.00, 7.30988E-007,    13.41,    79.0941,   -41.66,    79.0941,  -161.66,    79.0941,    78.34,          0,     0.00, 7.29257E-007,  -166.22
Line.L_CEI_MT_14866,    79.0941,   -41.66,    79.0941,  -161.66,    79.0941,    78.34,          0,     0.00, 7.3163E-007,  -166.23,    79.0941,   138.34,    79.0941,    18.34,    79.0941,  -101.66,          0,     0.00, 7.32672E-007,    13.49
Line.L_CEI_MT_14867,    23.6623,   -41.63,    23.6623,  -161.63,    23.6623,    78.37,          0,     0.00, 6.13402E-008,   120.07,    23.6623,   138.37,    23.6623,    18.37,    23.6623,  -101.63,          0,     0.00, 6.08611E-008,   -58.13
Line.L_CEI_MT_14868,    79.0941,   138.34,    79.0941,    18.34,    79.0941,  -101.66,          0,     0.00, 2.6534E-006,   -10.26,    79.0941,   -41.66,    79.0941,  -161.66,    79.0941,    78.34,          0,     0.00, 2.65256E-006,   169.73
Line.L_CEI_MT_14870,    1.05485,   138.34,    1.05485,    18.34,    1.05485,  -101.66,          0,     0.00, 8.99341E-009,   -68.75,    1.05485,   -41.66,    1.05485,  -161.66,    1.05485,    78.34,          0,     0.00, 7.52299E-009,   111.80
Line.L_CEI_MT_14871,    1.57756,   -41.63,    1.57756,  -161.63,    1.57756,    78.37,          0,     0.00, 4.67984E-009,   174.29,    1.57756,   138.37,    1.57756,    18.37,    1.57756,  -101.63,          0,     0.00, 5.8902E-009,   -18.43
Line.L_CEI_MT_14872,    1.56897,   -41.57,    1.56897,  -161.57,    1.56897,    78.43,          0,     0.00, 3.83994E-009,   -14.04,    1.56897,   138.43,    1.56897,    18.43,    1.56897,  -101.57,          0,     0.00, 5.68412E-009,  -145.01
Line.L_CEI_MT_14873,    1.56897,   -41.57,    1.56897,  -161.57,    1.56897,    78.43,          0,     0.00, 6.58545E-010,    45.00,    1.56897,   138.43,    1.56897,    18.43,    1.56897,  -101.57,          0,     0.00, 1.86265E-009,   -90.00
Line.L_CEI_MT_14874,    7.84501,   -41.57,    7.84501,  -161.57,    7.84501,    78.43,          0,     0.00, 1.23272E-006,  -104.75,    7.84501,   138.43,    7.84501,    18.43,    7.84501,  -101.57,          0,     0.00, 1.23295E-006,    75.21
Line.L_CEI_MT_14875,    7.84501,   -41.57,    7.84501,  -161.57,    7.84501,    78.43,          0,     0.00, 1.23589E-006,  -104.80,    7.84501,   138.43,    7.84501,    18.43,    7.84501,  -101.57,          0,     0.00, 1.23523E-006,    75.15
Line.L_CEI_MT_14876,    7.84501,   -41.57,    7.84501,  -161.57,    7.84501,    78.43,          0,     0.00, 1.24597E-006,  -104.37,    7.84501,   138.43,    7.84501,    18.43,    7.84501,  -101.57,          0,     0.00, 1.24326E-006,    75.60
Line.L_CEI_MT_14877,    7.84501,   138.43,    7.84501,    18.43,    7.84501,  -101.57,          0,     0.00, 1.23855E-006,    75.41,    7.84501,   -41.57,    7.84501,  -161.57,    7.84501,    78.43,          0,     0.00, 1.23812E-006,  -104.68
Line.L_CEI_MT_14878,    7.84501,   -41.57,    7.84501,  -161.57,    7.84501,    78.43,          0,     0.00, 2.72879E-008,   115.25,    7.84501,   138.43,    7.84501,    18.43,    7.84501,  -101.57,          0,     0.00, 2.83289E-008,   -64.70
Line.L_CEI_MT_14879,    7.84501,   138.43,    7.84501,    18.43,    7.84501,  -101.57,          0,     0.00, 2.31757E-008,   -67.56,    7.84501,   -41.57,    7.84501,  -161.57,    7.84501,    78.43,          0,     0.00, 2.56832E-008,   112.38
Line.L_CEI_MT_14880,    2.09206,   138.43,    2.09206,    18.43,    2.09206,  -101.57,          0,     0.00, 4.00577E-009,   -54.46,    2.09206,   -41.57,    2.09206,  -161.57,    2.09206,    78.43,          0,     0.00, 6.26483E-009,   131.99
Line.L_CEI_MT_14881, 4.165E-009,   116.57, 3.63693E-009,    39.81, 3.75428E-009,    82.87,          0,     0.00, 9.87817E-009,    81.87, 3.83994E-009,   -75.96, 3.83994E-009,  -165.96, 3.75428E-009,   -97.13,          0,     0.00, 8.99341E-009,  -111.25
Line.L_CEI_MT_14882, 9.31323E-010,   180.00, 5.12227E-009,     0.00, 1.91997E-009,    75.96,          0,     0.00, 5.01533E-009,    21.80, 9.31323E-010,   -90.00, 4.29318E-009,   167.47, 3.75428E-009,   -97.13,          0,     0.00, 5.96337E-009,  -141.34
Line.L_CEI_MT_14883, 4.67984E-009,    84.29, 4.41765E-009,    18.43, 2.32831E-009,    53.13,          0,     0.00, 9.96559E-009,    52.59, 3.39007E-009,  -105.95, 1.47255E-009,  -161.57, 1.31709E-009,  -135.00,          0,     0.00, 5.68412E-009,  -124.99
Line.L_CEI_MT_14884, 1.67897E-009,   146.31, 6.58545E-010,    45.00, 1.04125E-009,   -63.43,          0,     0.00, 6.58545E-010,   135.00, 2.0825E-009,   -63.43, 6.58545E-010,    45.00, 1.04125E-009,   -63.43,          0,     0.00, 2.98169E-009,   -51.34
Line.L_CEI_MT_14886,     1.0506,   -41.62,     1.0506,  -161.62,     1.0506,    78.38,          0,     0.00, 2.9451E-009,    71.57,     1.0506,   138.38,     1.0506,    18.38,     1.0506,  -101.62,          0,     0.00, 5.75991E-009,  -104.04
Line.L_CEI_MT_14887,     1.0506,   -41.62,     1.0506,  -161.62,     1.0506,    78.38,          0,     0.00, 5.30936E-009,   142.13,     1.0506,   138.38,     1.0506,    18.38,     1.0506,  -101.62,          0,     0.00, 8.5484E-009,   -60.64
Line.L_CEI_MT_14888,     1.0506,   -41.62,     1.0506,  -161.62,     1.0506,    78.38,          0,     0.00, 4.79428E-009,   150.95,     1.0506,   138.38,     1.0506,    18.38,     1.0506,  -101.62,          0,     0.00, 3.63693E-009,   -50.19
Line.L_CEI_MT_14889,    7.85306,   138.42,    7.85306,    18.42,    7.85306,  -101.58,          0,     0.00, 1.99963E-008,  -117.76,    7.85306,   -41.58,    7.85306,  -161.58,    7.85306,    78.42,          0,     0.00, 1.83272E-008,    62.78
Line.L_CEI_MT_14890, 4.65661E-010,    90.00, 3.63693E-009,   -39.81, 1.04125E-009,  -116.57,          0,     0.00, 3.63693E-009,   -50.19, 9.31323E-010,   180.00, 1.91997E-009,  -165.96, 9.31323E-010,   -90.00,          0,     0.00, 3.12375E-009,  -153.43
Line.L_CEI_MT_14891,    342.618,   138.43,    342.618,    18.43,    342.618,  -101.57,          0,     0.00, 2.91117E-005,    96.82,    342.618,   -41.57,    342.618,  -161.57,    342.618,    78.43,          0,     0.00, 2.9118E-005,   -83.17
Line.L_CEI_MT_14892,    350.471,   -41.57,    350.471,  -161.57,    350.471,    78.43,          0,     0.00, 2.90992E-005,   -83.14,    350.471,   138.43,    350.471,    18.43,    350.471,  -101.57,          0,     0.00, 2.90997E-005,    96.86
Line.L_CEI_MT_14893,    4.71655,   -41.59,    4.71655,  -161.59,    4.71655,    78.41,          0,     0.00, 2.85576E-008,    65.94,    4.71655,   138.41,    4.71655,    18.41,    4.71655,  -101.59,          0,     0.00, 2.45744E-008,  -117.05
Line.L_CEI_MT_14894,    4.71655,   -41.59,    4.71655,  -161.59,    4.71655,    78.41,          0,     0.00, 2.85424E-008,    61.76,    4.71655,   138.41,    4.71655,    18.41,    4.71655,  -101.59,          0,     0.00, 2.75016E-008,  -118.30
Line.L_CEI_MT_14895,    4.71655,   -41.59,    4.71655,  -161.59,    4.71655,    78.41,          0,     0.00, 2.20883E-008,    71.57,    4.71655,   138.41,    4.71655,    18.41,    4.71655,  -101.59,          0,     0.00, 2.10425E-008,  -114.86
Line.L_CEI_MT_14896,    4.71655,   -41.59,    4.71655,  -161.59,    4.71655,    78.41,          0,     0.00, 2.97914E-008,    65.04,    4.71655,   138.41,    4.71655,    18.41,    4.71655,  -101.59,          0,     0.00, 3.04394E-008,  -119.31
Line.L_CEI_MT_14897,    4.71655,   -41.59,    4.71655,  -161.59,    4.71655,    78.41,          0,     0.00, 2.06157E-008,    71.57,    4.71655,   138.41,    4.71655,    18.41,    4.71655,  -101.59,          0,     0.00, 2.1891E-008,  -113.84
Line.L_CEI_MT_14898,    4.71655,   -41.59,    4.71655,  -161.59,    4.71655,    78.41,          0,     0.00, 2.1667E-008,    61.78,    4.71655,   138.41,    4.71655,    18.41,    4.71655,  -101.59,          0,     0.00, 1.98111E-008,  -113.55
Line.L_CEI_MT_14899,    4.71655,   -41.59,    4.71655,  -161.59,    4.71655,    78.41,          0,     0.00, 1.5046E-008,    68.20,    4.71655,   138.41,    4.71655,    18.41,    4.71655,  -101.59,          0,     0.00, 1.14158E-008,  -101.77
Line.L_CEI_MT_14900,    4.71655,   -41.59,    4.71655,  -161.59,    4.71655,    78.41,          0,     0.00, 1.12146E-008,    85.24,    4.71655,   138.41,    4.71655,    18.41,    4.71655,  -101.59,          0,     0.00, 9.32486E-009,   -92.86
Line.L_CEI_MT_14901,    4.71655,   -41.59,    4.71655,  -161.59,    4.71655,    78.41,          0,     0.00, 1.43451E-008,   103.13,    4.71655,   138.41,    4.71655,    18.41,    4.71655,  -101.59,          0,     0.00, 1.47989E-008,   -77.28
Line.L_CEI_MT_14902,    4.71655,   -41.59,    4.71655,  -161.59,    4.71655,    78.41,          0,     0.00, 1.1501E-008,   111.37,    4.71655,   138.41,    4.71655,    18.41,    4.71655,  -101.59,          0,     0.00, 1.25383E-008,   -68.20
Line.L_CEI_MT_19749A,    2.63691,   -41.66,    2.63691,  -161.66,    2.63691,    78.34,          0,     0.00, 8.23839E-009,   137.29,    2.63691,   138.34,    2.63691,    18.34,    2.63691,  -101.66,          0,     0.00, 9.87817E-009,   -45.00
Line.L_CEI_MT_19759A,    2.63087,   -41.63,    2.63087,  -161.63,    2.63087,    78.37,          0,     0.00, 8.39483E-009,   109.44,    2.63087,   138.37,    2.63087,    18.37,    2.63087,  -101.63,          0,     0.00, 9.96559E-009,   -52.59
Line.L_CEI_MT_5182,    4.73687,   138.36,    4.73687,    18.36,    4.73687,  -101.64,          0,     0.00, 1.47989E-008,   -77.28,    4.73687,   -41.64,    4.73687,  -161.64,    4.73687,    78.36,          0,     0.00, 1.36955E-008,   107.82
Line.L_CEI_MT_5183,    171.154,   138.41,    171.154,    18.41,    171.154,  -101.59,          0,     0.00, 2.83279E-005,   109.87,    171.154,   -41.59,    171.154,  -161.59,    171.154,    78.41,          0,     0.00, 2.833E-005,   -70.13
Line.L_CEI_MT_5187,    151.635,   138.38,    151.635,    18.38,    151.635,  -101.62,          0,     0.00, 4.37627E-005,   116.51,    151.635,   -41.62,    151.635,  -161.62,    151.635,    78.38,          0,     0.00, 4.37629E-005,   -63.49
Line.L_CEI_MT_5188,    151.635,   138.38,    151.635,    18.38,    151.635,  -101.62,          0,     0.00, 4.37681E-005,   116.51,    151.635,   -41.62,    151.635,  -161.62,    151.635,    78.38,          0,     0.00, 4.37684E-005,   -63.49
Line.L_CEI_MT_5189,    151.635,   138.38,    151.635,    18.38,    151.635,  -101.62,          0,     0.00, 4.37686E-005,   116.50,    151.635,   -41.62,    151.635,  -161.62,    151.635,    78.38,          0,     0.00, 4.37702E-005,   -63.50
Line.L_CEI_MT_519,    283.964,   138.39,    283.964,    18.39,    283.964,  -101.61,          0,     0.00, 3.40003E-005,    85.43,    283.964,   -41.61,    283.964,  -161.61,    283.964,    78.39,          0,     0.00, 3.40023E-005,   -94.57
Line.L_CEI_MT_5190,    151.635,   138.38,    151.635,    18.38,    151.635,  -101.62,          0,     0.00, 4.37671E-005,   116.51,    151.635,   -41.62,    151.635,  -161.62,    151.635,    78.38,          0,     0.00, 4.37702E-005,   -63.49
Line.L_CEI_MT_5191,    151.635,   138.38,    151.635,    18.38,    151.635,  -101.62,          0,     0.00, 4.3775E-005,   116.50,    151.635,   -41.62,    151.635,  -161.62,    151.635,    78.38,          0,     0.00, 4.37769E-005,   -63.50
Line.L_CEI_MT_5192,    151.635,   138.38,    151.635,    18.38,    151.635,  -101.62,          0,     0.00, 4.37757E-005,   116.50,    151.635,   -41.62,    151.635,  -161.62,    151.635,    78.38,          0,     0.00, 4.37781E-005,   -63.50
Line.L_CEI_MT_5193,    151.635,   138.38,    151.635,    18.38,    151.635,  -101.62,          0,     0.00, 4.37763E-005,   116.50,    151.635,   -41.62,    151.635,  -161.62,    151.635,    78.38,          0,     0.00, 4.37771E-005,   -63.50
Line.L_CEI_MT_5194,    151.635,   138.38,    151.635,    18.38,    151.635,  -101.62,          0,     0.00, 4.37817E-005,   116.49,    151.635,   -41.62,    151.635,  -161.62,    151.635,    78.38,          0,     0.00, 4.37827E-005,   -63.51
Line.L_CEI_MT_5195,    1.57837,   138.37,    1.57837,    18.37,    1.57837,  -101.63,          0,     0.00, 2.49594E-006,    76.46,    1.57837,   -41.63,    1.57837,  -161.63,    1.57837,    78.37,          0,     0.00, 2.49605E-006,  -103.55
Line.L_CEI_MT_5196,    1.57837,   138.37,    1.57837,    18.37,    1.57837,  -101.63,          0,     0.00, 2.49402E-006,    76.46,    1.57837,   -41.63,    1.57837,  -161.63,    1.57837,    78.37,          0,     0.00, 2.4948E-006,  -103.57
Line.L_CEI_MT_5197,    1.57837,   138.37,    1.57837,    18.37,    1.57837,  -101.63,          0,     0.00, 2.50506E-006,    76.37,    1.57837,   -41.63,    1.57837,  -161.63,    1.57837,    78.37,          0,     0.00, 2.50776E-006,  -103.66
Line.L_CEI_MT_5198,    1.57837,   138.37,    1.57837,    18.37,    1.57837,  -101.63,          0,     0.00, 2.50334E-006,    76.26,    1.57837,   -41.63,    1.57837,  -161.63,    1.57837,    78.37,          0,     0.00, 2.50525E-006,  -103.79
Line.L_CEI_MT_5199,    1.57837,   138.37,    1.57837,    18.37,    1.57837,  -101.63,          0,     0.00, 2.51067E-006,    76.24,    1.57837,   -41.63,    1.57837,  -161.63,    1.57837,    78.37,          0,     0.00, 2.51315E-006,  -103.81
Line.L_CEI_MT_520,    283.964,   138.39,    283.964,    18.39,    283.964,  -101.61,          0,     0.00, 3.39972E-005,    85.42,    283.964,   -41.61,    283.964,  -161.61,    283.964,    78.39,          0,     0.00, 3.39981E-005,   -94.58
Line.L_CEI_MT_5200,    1.57837,   138.37,    1.57837,    18.37,    1.57837,  -101.63,          0,     0.00, 2.51341E-006,    76.35,    1.57837,   -41.63,    1.57837,  -161.63,    1.57837,    78.37,          0,     0.00, 2.51193E-006,  -103.69
Line.L_CEI_MT_5201,    1.57837,   -41.63,    1.57837,  -161.63,    1.57837,    78.37,          0,     0.00, 2.51179E-006,  -103.81,    1.57837,   138.37,    1.57837,    18.37,    1.57837,  -101.63,          0,     0.00, 2.51337E-006,    76.17
Line.L_CEI_MT_5202,    1.57837,   138.37,    1.57837,    18.37,    1.57837,  -101.63,          0,     0.00, 2.5127E-006,    76.19,    1.57837,   -41.63,    1.57837,  -161.63,    1.57837,    78.37,          0,     0.00, 2.51654E-006,  -103.77
Line.L_CEI_MT_5203,    1.57837,   138.37,    1.57837,    18.37,    1.57837,  -101.63,          0,     0.00, 2.51428E-006,    76.18,    1.57837,   -41.63,    1.57837,  -161.63,    1.57837,    78.37,          0,     0.00, 2.51676E-006,  -103.83
Line.L_CEI_MT_5204,    1.57837,   138.37,    1.57837,    18.37,    1.57837,  -101.63,          0,     0.00, 2.52363E-006,    76.02,    1.57837,   -41.63,    1.57837,  -161.63,    1.57837,    78.37,          0,     0.00, 2.52409E-006,  -103.93
Line.L_CEI_MT_5205,    1.57837,   138.37,    1.57837,    18.37,    1.57837,  -101.63,          0,     0.00, 1.25556E-006,    76.25,    1.57837,   -41.63,    1.57837,  -161.63,    1.57837,    78.37,          0,     0.00, 1.25749E-006,  -103.67
Line.L_CEI_MT_5206,    1.57837,   138.37,    1.57837,    18.37,    1.57837,  -101.63,          0,     0.00, 1.25691E-006,    76.09,    1.57837,   -41.63,    1.57837,  -161.63,    1.57837,    78.37,          0,     0.00, 1.25499E-006,  -103.91
Line.L_CEI_MT_5207,    1.57837,   138.37,    1.57837,    18.37,    1.57837,  -101.63,          0,     0.00, 1.25984E-006,    75.81,    1.57837,   -41.63,    1.57837,  -161.63,    1.57837,    78.37,          0,     0.00, 1.26199E-006,  -104.14
Line.L_CEI_MT_5208,    1.57837,   138.37,    1.57837,    18.37,    1.57837,  -101.63,          0,     0.00, 1.25882E-006,    76.00,    1.57837,   -41.63,    1.57837,  -161.63,    1.57837,    78.37,          0,     0.00, 1.26131E-006,  -104.02
Line.L_CEI_MT_5209,    1.57837,   138.37,    1.57837,    18.37,    1.57837,  -101.63,          0,     0.00, 1.26323E-006,    76.07,    1.57837,   -41.63,    1.57837,  -161.63,    1.57837,    78.37,          0,     0.00, 1.26142E-006,  -103.95
Line.L_CEI_MT_521,    283.964,   138.39,    283.964,    18.39,    283.964,  -101.61,          0,     0.00, 3.39974E-005,    85.42,    283.964,   -41.61,    283.964,  -161.61,    283.964,    78.39,          0,     0.00, 3.39994E-005,   -94.58
Line.L_CEI_MT_5210,    1.57837,   -41.63,    1.57837,  -161.63,    1.57837,    78.37,          0,     0.00, 5.8902E-009,   161.57,    1.57837,   138.37,    1.57837,    18.37,    1.57837,  -101.63,          0,     0.00, 7.04673E-009,    -7.59
Line.L_CEI_MT_5211,    150.057,   -41.62,    150.057,  -161.62,    150.057,    78.38,          0,     0.00, 4.25135E-005,   -63.24,    150.057,   138.38,    150.057,    18.38,    150.057,  -101.62,          0,     0.00, 4.2513E-005,   116.76
...
Line.SW_FT3432, 6.7435E-007,  -135.00, 2.04053E-006,    -6.71, 6.7435E-007,  -135.00,          0,     0.00, 1.6038E-006,   -48.01, 1.2157E-006,    78.69, 8.34465E-007,   180.00, 6.7435E-007,   135.00,          0,     0.00, 1.98404E-006,   122.74
Line.SW_FX2587,    4.18386,   138.43,    4.18386,    18.43,    4.18386,  -101.57,          0,     0.00, 1.81574E-006,    23.20,    4.18386,   -41.57,    4.18386,  -161.57,    4.18386,    78.43,          0,     0.00, 1.52662E-006,   128.66
Line.SW_FIC2004, 9.61096E-007,   -29.74, 1.43051E-006,     0.00, 1.06624E-006,  -116.57,          0,     0.00, 2.28994E-006,   -38.66, 1.01852E-006,   110.56,          0,     0.00, 1.06624E-006,    63.43,          0,     0.00, 1.91107E-006,    86.42
Line.SW_FZ1012_DP_12240, 4.76837E-007,   180.00, 2.0819E-006,   -13.24, 4.76837E-007,   180.00,          0,     0.00, 1.17408E-006,   -23.96, 1.45024E-006,     9.46, 5.96046E-007,   180.00, 4.76837E-007,   -90.00,          0,     0.00, 8.67857E-007,   -15.95
Line.SW_FU0743, 5.3312E-007,  -153.43, 1.49369E-006,   -28.61, 2.38419E-007,   180.00,          0,     0.00, 1.12462E-006,   -57.99, 1.01152E-006,   135.00, 2.6656E-007,  -116.57, 9.83025E-007,   104.04,          0,     0.00, 1.78814E-006,   126.87
Line.SW_2175_SCN, 1.26721E-006,   -48.81, 1.78814E-006,   180.00, 4.76837E-007,    90.00,          0,     0.00, 1.06624E-006,  -153.43, 1.26721E-006,   131.19, 1.85063E-006,   -14.93, 1.90735E-006,   -90.00,          0,     0.00, 1.71926E-006,   -56.31
Line.SW_FP1476F,     159.07,   138.38,     159.07,    18.38,     159.07,  -101.62,          0,     0.00, 2.55534E-005,   101.57,     159.07,   -41.62,     159.07,  -161.62,     159.07,    78.38,          0,     0.00, 2.50671E-005,   -75.96
Line.SW_FIC2008,    40.6606,   138.33,    40.6606,    18.33,    40.6606,  -101.67,          0,     0.00, 6.18626E-006,    25.08,    40.6606,   -41.67,    40.6606,  -161.67,    40.6606,    78.33,          0,     0.00, 7.02121E-006,  -139.82
Line.SW_FX2678, 4.91512E-007,   -75.96, 1.59936E-006,    26.57, 6.7435E-007,   135.00,          0,     0.00, 1.28945E-006,    33.69, 4.91512E-007,   104.04, 2.38419E-007,   -90.00,          0,     0.00,          0,     0.00, 2.6656E-007,   116.57
Line.SW_FW6568,    4.22447,   138.33,    4.22446,    18.33,    4.22446,  -101.67,          0,     0.00, 4.56277E-006,   109.86,    4.22447,   -41.67,    4.22446,  -161.67,    4.22446,    78.33,          0,     0.00, 2.75216E-006,   -72.35
Line.SW_FT6092, 1.19209E-007,     0.00, 5.96046E-007,   -53.13, 4.76837E-007,   180.00,          0,     0.00, 4.76837E-007,   -90.00, 1.17408E-006,  -156.04, 1.3113E-006,   180.00, 8.5963E-007,   -33.69,          0,     0.00, 1.92219E-006,  -150.26
Line.SW_FP8207, 1.19209E-007,   180.00, 1.09906E-006,   -12.53, 5.3312E-007,    63.43,          0,     0.00, 1.2157E-006,    11.31, 2.6656E-007,    63.43, 2.6656E-007,   -63.43, 4.76837E-007,   180.00,          0,     0.00, 2.38419E-007,   180.00
Line.SW_FP0928, 2.0819E-006,   113.63, 2.45467E-006,   -29.05, 1.19209E-006,   126.87,          0,     0.00, 1.77217E-006,    70.35, 1.45513E-006,   -55.01, 2.34815E-006,   156.04, 8.5963E-007,   -33.69,          0,     0.00, 9.31054E-007,  -129.81
Line.SW_FU4650, 7.53946E-007,   161.57, 1.45513E-006,   -55.01, 1.86211E-006,   129.81,          0,     0.00, 1.17408E-006,   156.04, 2.38419E-007,   180.00, 9.31054E-007,   129.81, 8.5963E-007,   -33.69,          0,     0.00, 2.6656E-007,   116.57
Line.SW_FP3922,    5.26171,   138.37,     5.2617,    18.37,    5.26171,  -101.63,          0,     0.00, 2.83357E-006,  -165.38,    5.26171,   -41.63,     5.2617,  -161.63,    5.26171,    78.37,          0,     0.00, 1.81965E-006,   -31.61
Line.SW_FU2966, 9.61096E-007,    29.74, 2.13248E-006,   -26.57, 6.7435E-007,   135.00,          0,     0.00, 2.26498E-006,     0.00, 1.19209E-007,   180.00, 1.68587E-006,   171.87, 5.3312E-007,   116.57,          0,     0.00, 2.14908E-006,   160.56
Line.SW_FIC6219,    6.79879,   138.43,    6.79879,    18.43,    6.79879,  -101.57,          0,     0.00, 1.06624E-006,  -153.43,    6.79879,   -41.57,    6.79878,  -161.57,    6.79879,    78.43,          0,     0.00, 9.83025E-007,   -14.04
Line.SW_FX2155,    210.642,   -41.60,    210.642,  -161.60,    210.642,    78.40,          0,     0.00, 3.07227E-005,   -77.91,    210.642,   138.40,    210.642,    18.40,    210.642,  -101.60,          0,     0.00, 2.86945E-005,    98.60
Line.SW_FP1477,    54.8853,   138.39,    54.8853,    18.39,    54.8853,  -101.61,          0,     0.00, 5.00821E-006,   -88.64,    54.8853,   -41.61,    54.8853,  -161.61,    54.8853,    78.39,          0,     0.00, 3.86098E-006,    98.88
Line.SW_FIC3836, 3.57628E-007,     0.00, 1.56795E-006,     8.75, 9.53674E-007,   180.00,          0,     0.00, 9.83025E-007,    14.04, 1.01852E-006,   110.56, 1.17408E-006,  -156.04, 1.43051E-006,   -90.00,          0,     0.00, 1.71926E-006,  -146.31
Line.SW_FZ0734, 1.19209E-006,  -126.87, 1.28392E-006,    21.80, 1.3487E-006,   135.00,          0,     0.00, 6.7435E-007,   135.00, 1.52662E-006,    38.66, 1.90735E-006,   180.00, 6.7435E-007,   -45.00,          0,     0.00, 5.3312E-007,   116.57
Line.SW_FIC4166,    9.93697,   138.43,    9.93697,    18.43,    9.93697,  -101.57,          0,     0.00, 2.0819E-006,   -66.37,    9.93697,   -41.57,    9.93697,  -161.57,    9.93697,    78.43,          0,     0.00, 1.19804E-006,    95.71
Line.SW_FP7913, 1.39021E-006,    30.96, 7.9968E-007,   -63.43, 8.5963E-007,  -146.31,          0,     0.00, 9.61096E-007,   -29.74, 1.19209E-006,   180.00, 1.56795E-006,   171.25, 4.76837E-007,   180.00,          0,     0.00, 3.22747E-006,   175.76
Line.SW_FX3717, 1.86211E-006,    39.81, 1.19209E-006,   -36.87, 7.15256E-007,   180.00,          0,     0.00, 1.73571E-006,    15.95, 2.38419E-007,   180.00, 9.83025E-007,   165.96, 7.15256E-007,     0.00,          0,     0.00, 5.3312E-007,   153.43
Line.SW_FP4175_DP_21647, 5.3312E-007,    63.43, 2.37523E-006,   -17.53, 1.50789E-006,  -108.43,          0,     0.00, 2.62531E-006,   -39.47, 1.45024E-006,  -170.54, 2.6656E-007,   116.57, 9.83025E-007,    75.96,          0,     0.00, 1.62142E-006,   143.97
Line.SW_FW7439, 9.61096E-007,    82.87, 1.39021E-006,   -30.96, 8.5963E-007,   -33.69,          0,     0.00, 2.04053E-006,    -6.71, 6.41962E-007,    21.80, 1.19209E-006,   126.87, 1.19209E-006,  -126.87,          0,     0.00, 8.67857E-007,   164.05
Line.SW_FW6456,    151.635,   138.38,    151.635,    18.38,    151.635,  -101.62,          0,     0.00, 4.26011E-005,   115.70,    151.635,   -41.62,    151.635,  -161.62,    151.635,    78.38,          0,     0.00, 4.39953E-005,   -64.82
Line.SW_FX4290, 6.41962E-007,    21.80, 8.5963E-007,   -56.31, 5.3312E-007,  -116.57,          0,     0.00, 1.26721E-006,   -48.81, 5.96046E-007,   180.00, 2.38419E-007,   -90.00, 2.38419E-007,   180.00,          0,     0.00, 8.67857E-007,  -164.05
Line.SW_FIC3850, 1.3328E-006,   116.57, 1.17408E-006,   -23.96, 2.38419E-007,     0.00,          0,     0.00, 1.01152E-006,    45.00, 1.09906E-006,   -40.60, 9.31054E-007,   129.81, 8.5963E-007,    33.69,          0,     0.00, 1.06624E-006,    26.57
Line.SW_FX2297, 5.96046E-007,  -126.87, 1.90735E-006,     0.00, 6.7435E-007,  -135.00,          0,     0.00, 1.43547E-006,   -41.63, 1.62142E-006,    36.03, 1.92219E-006,  -172.87, 4.76837E-007,    90.00,          0,     0.00, 1.3328E-006,   116.57
Line.SW_FU4749, 1.68587E-006,    98.13, 1.62142E-006,   -36.03, 9.83025E-007,  -104.04,          0,     0.00, 8.67857E-007,   -15.95, 8.5963E-007,  -123.69, 1.6038E-006,   131.99, 2.38419E-007,   180.00,          0,     0.00, 1.85063E-006,   165.07
Line.SW_FF0625, 8.5963E-007,  -146.31, 2.51472E-006,    -5.44, 5.3312E-007,   -63.43,          0,     0.00, 2.35117E-006,   -30.47, 6.7435E-007,    45.00, 1.3113E-006,   180.00, 6.7435E-007,  -135.00,          0,     0.00, 1.3113E-006,   180.00
Line.SW_FP5989_DP_19738, 6.7435E-007,    45.00, 1.19209E-006,     0.00, 6.7435E-007,  -135.00,          0,     0.00, 1.19209E-006,     0.00, 1.19209E-006,   126.87, 2.38419E-007,   -90.00, 1.06624E-006,    63.43,          0,     0.00, 1.68587E-006,    98.13
Line.SW_FP4528,    4.99141,   138.38,    4.99141,    18.38,    4.99141,  -101.62,          0,     0.00, 9.61096E-007,  -150.26,    4.99141,   -41.62,    4.99141,  -161.62,    4.99141,    78.38,          0,     0.00, 1.98404E-006,   122.74
Line.SW_FW6078,     1.5803,   138.35,     1.5803,    18.35,     1.5803,  -101.65,          0,     0.00, 1.92589E-006,   -21.80,     1.5803,   -41.65,     1.5803,  -161.65,     1.5803,    78.35,          0,     0.00, 1.43547E-006,   138.37
Line.SW_FIC3860,    4.99141,   138.38,    4.99141,    18.38,    4.99141,  -101.62,          0,     0.00, 2.24924E-006,   -57.99,    4.99141,   -41.62,    4.99141,  -161.62,    4.99141,    78.38,          0,     0.00, 2.53442E-006,   131.19
Line.SW_FX5275, 9.83025E-007,    14.04, 6.41962E-007,    21.80, 4.76837E-007,   180.00,          0,     0.00, 1.17408E-006,    23.96, 5.3312E-007,   116.57, 1.56795E-006,  -171.25, 2.38419E-007,   180.00,          0,     0.00, 2.04053E-006,   173.29
Line.SW_FP0937, 7.15256E-007,    90.00, 1.09906E-006,    12.53, 1.52662E-006,  -141.34,          0,     0.00, 1.19209E-007,   180.00, 2.38419E-007,   180.00, 8.34465E-007,   180.00, 8.5963E-007,    33.69,          0,     0.00, 5.96046E-007,   126.87
Line.SW_FU4651, 1.39531E-006,   160.02, 1.49369E-006,   -28.61, 9.83025E-007,  -104.04,          0,     0.00, 1.2157E-006,  -101.31, 8.34465E-007,     0.00, 2.04053E-006,   173.29, 5.3312E-007,   116.57,          0,     0.00, 1.59936E-006,   153.43
Line.SW_FIC3996, 1.01152E-006,    45.00, 1.3328E-006,   -10.30, 4.76837E-007,   180.00,          0,     0.00, 1.62142E-006,    17.10, 2.38419E-007,   -90.00, 4.91512E-007,   104.04, 2.38419E-007,   180.00,          0,     0.00, 4.29815E-007,   146.31
Line.SW_FU4551,    278.778,   138.43,    278.778,    18.43,    278.778,  -101.57,          0,     0.00, 2.20511E-005,    95.90,    278.778,   -41.57,    278.778,  -161.57,    278.778,    78.43,          0,     0.00, 2.17514E-005,   -85.91
...